Info: SIMULATION PARAMETERS:
Info: TIMESTEP               2
Info: NUMBER OF STEPS        0
Info: STEPS PER CYCLE        20
Info: PERIODIC CELL BASIS 1  57.8046 0 0
Info: PERIODIC CELL BASIS 2  0 57.8046 0
Info: PERIODIC CELL BASIS 3  0 0 57.8046
Info: PERIODIC CELL CENTER   0 0 0
Info: WRAPPING ALL CLUSTERS AROUND PERIODIC BOUNDARIES ON OUTPUT.
Info: WRAPPING TO IMAGE NEAREST TO PERIODIC CELL CENTER.
Info: FIRST LDB TIMESTEP     100
Info: LAST LDB TIMESTEP     -1
Info: HOM BACKGROUND SCALING 1
Info: PME BACKGROUND SCALING 1
Info: MIN ATOMS PER PATCH    40
Info: VELOCITY FILE          benchmark.vel
Info: CENTER OF MASS MOVING INITIALLY? NO
Info: DIELECTRIC             1
Info: EXCLUDE                SCALED ONE-FOUR
Info: 1-4 ELECTROSTATICS SCALED BY 1
Info: MODIFIED 1-4 VDW PARAMETERS WILL BE USED
Info: DCD FILENAME           benchmark.dcd
Info: DCD FREQUENCY          25000
Info: DCD FIRST STEP         25000
Info: DCD FILE WILL CONTAIN UNIT CELL DATA
Info: XST FILENAME           benchmark.xst
Info: XST FREQUENCY          25000
Info: NO VELOCITY DCD OUTPUT
Info: NO FORCE DCD OUTPUT
Info: OUTPUT FILENAME        benchmark
Info: BINARY OUTPUT FILES WILL BE USED
Info: RESTART FILENAME       benchmark
Info: RESTART FREQUENCY      25000
Info: BINARY RESTART FILES WILL BE USED
Info: SWITCHING ACTIVE
Info: SWITCHING ON           10
Info: SWITCHING OFF          12
Info: PAIRLIST DISTANCE      14
Info: PAIRLIST SHRINK RATE   0.01
Info: PAIRLIST GROW RATE     0.01
Info: PAIRLIST TRIGGER       0.3
Info: PAIRLISTS PER CYCLE    1
Info: PAIRLISTS ENABLED
Info: MARGIN                 0.495
Info: HYDROGEN GROUP CUTOFF  2.5
Info: PATCH DIMENSION        16.995
Info: ENERGY OUTPUT STEPS    10000
Info: CROSSTERM ENERGY INCLUDED IN DIHEDRAL
Info: TIMING OUTPUT STEPS    10000
Info: PRESSURE OUTPUT STEPS  10000
Info: LANGEVIN DYNAMICS ACTIVE
Info: LANGEVIN TEMPERATURE   300
Info: LANGEVIN USING BBK INTEGRATOR
Info: LANGEVIN DAMPING COEFFICIENT IS 1 INVERSE PS
Info: LANGEVIN DYNAMICS APPLIED TO HYDROGENS
Info: LANGEVIN PISTON PRESSURE CONTROL ACTIVE
Info:        TARGET PRESSURE IS 1 BAR
Info:     OSCILLATION PERIOD IS 200 FS
Info:             DECAY TIME IS 100 FS
Info:     PISTON TEMPERATURE IS 300 K
Info:       PRESSURE CONTROL IS GROUP-BASED
Info:    INITIAL STRAIN RATE IS 2.91119e-05 2.91119e-05 2.91119e-05
Info:       CELL FLUCTUATION IS ISOTROPIC
Info: PARTICLE MESH EWALD (PME) ACTIVE
Info: PME TOLERANCE               1e-06
Info: PME EWALD COEFFICIENT       0.257952
Info: PME INTERPOLATION ORDER     4
Info: PME GRID DIMENSIONS         60 60 60
Info: PME MAXIMUM GRID SPACING    1
Info: FULL ELECTROSTATIC EVALUATION FREQUENCY      1
Info: USING VERLET I (r-RESPA) MTS SCHEME.
Info: C1 SPLITTING OF LONG RANGE ELECTROSTATICS
Info: PLACING ATOMS IN PATCHES BY HYDROGEN GROUPS
Info: RIGID BONDS TO HYDROGEN : ALL
Info:         ERROR TOLERANCE : 1e-08
Info:          MAX ITERATIONS : 100
Info: RIGID WATER USING SETTLE ALGORITHM
Info: RANDOM NUMBER SEED     1624888214
Info: USE HYDROGEN BONDS?    NO
Info: COORDINATE PDB         benchmark.pdb
Info: STRUCTURE FILE         benchmark.psf
Info: PARAMETER file: CHARMM format!
Info: PARAMETERS             par_all27_prot_lipid.prm
Info: USING ARITHMETIC MEAN TO COMBINE L-J SIGMA PARAMETERS
Info: BINARY COORDINATES     benchmark.coor
Info: SUMMARY OF PARAMETERS:
Info: 185 BONDS
Info: 467 ANGLES
Info: 601 DIHEDRAL
Info: 47 IMPROPER
Info: 6 CROSSTERM
Info: 121 VDW
Info: 0 VDW_PAIRS
Info: 0 NBTHOLE_PAIRS
Info: STRUCTURE SUMMARY:
Info: 19605 ATOMS
Info: 13294 BONDS
Info: 7504 ANGLES
Info: 1747 DIHEDRALS
Info: 107 IMPROPERS
Info: 44 CROSSTERMS
Info: 0 EXCLUSIONS
Info: 19278 RIGID BONDS
Info: 39537 DEGREES OF FREEDOM
Info: 6648 HYDROGEN GROUPS
Info: 4 ATOMS IN LARGEST HYDROGEN GROUP
Info: 6648 MIGRATION GROUPS
Info: 4 ATOMS IN LARGEST MIGRATION GROUP
Info: TOTAL MASS = 118606 amu
Info: TOTAL CHARGE = 3.91155e-07 e
Info: MASS DENSITY = 1.01971 g/cm^3
Info: ATOM DENSITY = 0.101503 atoms/A^3
Info: ADDED 22511 IMPLICIT EXCLUSIONS
Info: NONBONDED TABLE R-SQUARED SPACING: 0.0625
Info: NONBONDED TABLE SIZE: 769 POINTS
Info: REMOVING COM VELOCITY -0.030499 -0.00173677 -0.0148317
TCL: Running for 50000 steps
ETITLE: TS BOND ANGLE DIHED IMPRP ELECT VDW BOUNDARY MISC KINETIC TOTAL TEMP POTENTIAL TOTAL3 TEMPAVG PRESSURE GPRESSURE VOLUME PRESSAVG GPRESSAVG
ENERGY: 0 126.0233 379.8907 188.6283 23.4813 -69503.0844 6392.4052 0.0000 0.0000 11739.8867 -50652.7688 298.8482 -62392.6556 -50623.9749 298.8482 117.9994 118.6334 193146.6593 117.9994 118.6334
ENERGY: 10000 132.9898 360.7870 185.1602 22.8591 -69554.7627 6340.5023 0.0000 0.0000 11736.2349 -50776.2294 298.7552 -62512.4642 -50747.2112 299.6124 -95.8664 -92.6627 193237.0313 2.7282 2.8287
ENERGY: 20000 138.8808 409.5335 180.6229 24.6120 -69742.5409 6440.4303 0.0000 0.0000 11659.9538 -50888.5077 296.8134 -62548.4614 -50866.7974 299.8764 -96.8694 -74.6226 193961.6402 -2.7701 -2.8390
ENERGY: 30000 138.3062 377.5008 193.8243 18.1981 -69276.4404 6315.8325 0.0000 0.0000 11661.4828 -50571.2958 296.8523 -62232.7786 -50550.8440 300.5893 23.6292 58.1611 193551.8006 1.5459 1.3987
ENERGY: 40000 148.7613 385.1107 180.4590 23.7331 -69549.1639 6278.0609 0.0000 0.0000 11775.9704 -50757.0685 299.7667 -62533.0389 -50730.4231 300.5927 -113.5747 -104.1397 192229.1899 3.7670 3.6576
ENERGY: 50000 142.7455 354.4332 194.8856 19.3896 -69742.7049 6495.8578 0.0000 0.0000 11735.4545 -50799.9387 298.7353 -62535.3932 -50777.9181 299.8144 45.6868 60.0512 193898.7679 2.4125 2.4015
