Info: SIMULATION PARAMETERS:
Info: TIMESTEP               2
Info: NUMBER OF STEPS        0
Info: STEPS PER CYCLE        20
Info: PERIODIC CELL BASIS 1  57.8046 0 0
Info: PERIODIC CELL BASIS 2  0 57.8046 0
Info: PERIODIC CELL BASIS 3  0 0 57.8046
Info: PERIODIC CELL CENTER   0 0 0
Info: WRAPPING ALL CLUSTERS AROUND PERIODIC BOUNDARIES ON OUTPUT.
Info: WRAPPING TO IMAGE NEAREST TO PERIODIC CELL CENTER.
Info: FIRST LDB TIMESTEP     100
Info: LAST LDB TIMESTEP     -1
Info: HOM BACKGROUND SCALING 1
Info: PME BACKGROUND SCALING 1
Info: MIN ATOMS PER PATCH    40
Info: VELOCITY FILE          benchmark.vel
Info: CENTER OF MASS MOVING INITIALLY? NO
Info: DIELECTRIC             1
Info: EXCLUDE                SCALED ONE-FOUR
Info: 1-4 ELECTROSTATICS SCALED BY 1
Info: MODIFIED 1-4 VDW PARAMETERS WILL BE USED
Info: DCD FILENAME           benchmark.dcd
Info: DCD FREQUENCY          25000
Info: DCD FIRST STEP         25000
Info: DCD FILE WILL CONTAIN UNIT CELL DATA
Info: XST FILENAME           benchmark.xst
Info: XST FREQUENCY          25000
Info: NO VELOCITY DCD OUTPUT
Info: NO FORCE DCD OUTPUT
Info: OUTPUT FILENAME        benchmark
Info: BINARY OUTPUT FILES WILL BE USED
Info: RESTART FILENAME       benchmark
Info: RESTART FREQUENCY      25000
Info: BINARY RESTART FILES WILL BE USED
Info: SWITCHING ACTIVE
Info: SWITCHING ON           10
Info: SWITCHING OFF          12
Info: PAIRLIST DISTANCE      14
Info: PAIRLIST SHRINK RATE   0.01
Info: PAIRLIST GROW RATE     0.01
Info: PAIRLIST TRIGGER       0.3
Info: PAIRLISTS PER CYCLE    1
Info: PAIRLISTS ENABLED
Info: MARGIN                 0.495
Info: HYDROGEN GROUP CUTOFF  2.5
Info: PATCH DIMENSION        16.995
Info: ENERGY OUTPUT STEPS    10000
Info: CROSSTERM ENERGY INCLUDED IN DIHEDRAL
Info: TIMING OUTPUT STEPS    10000
Info: PRESSURE OUTPUT STEPS  10000
Info: LANGEVIN DYNAMICS ACTIVE
Info: LANGEVIN TEMPERATURE   300
Info: LANGEVIN USING BBK INTEGRATOR
Info: LANGEVIN DAMPING COEFFICIENT IS 1 INVERSE PS
Info: LANGEVIN DYNAMICS APPLIED TO HYDROGENS
Info: LANGEVIN PISTON PRESSURE CONTROL ACTIVE
Info:        TARGET PRESSURE IS 1 BAR
Info:     OSCILLATION PERIOD IS 200 FS
Info:             DECAY TIME IS 100 FS
Info:     PISTON TEMPERATURE IS 300 K
Info:       PRESSURE CONTROL IS GROUP-BASED
Info:    INITIAL STRAIN RATE IS 2.91119e-05 2.91119e-05 2.91119e-05
Info:       CELL FLUCTUATION IS ISOTROPIC
Info: PARTICLE MESH EWALD (PME) ACTIVE
Info: PME TOLERANCE               1e-06
Info: PME EWALD COEFFICIENT       0.257952
Info: PME INTERPOLATION ORDER     4
Info: PME GRID DIMENSIONS         60 60 60
Info: PME MAXIMUM GRID SPACING    1
Info: FULL ELECTROSTATIC EVALUATION FREQUENCY      1
Info: USING VERLET I (r-RESPA) MTS SCHEME.
Info: C1 SPLITTING OF LONG RANGE ELECTROSTATICS
Info: PLACING ATOMS IN PATCHES BY HYDROGEN GROUPS
Info: RIGID BONDS TO HYDROGEN : ALL
Info:         ERROR TOLERANCE : 1e-08
Info:          MAX ITERATIONS : 100
Info: RIGID WATER USING SETTLE ALGORITHM
Info: RANDOM NUMBER SEED     1624888214
Info: USE HYDROGEN BONDS?    NO
Info: COORDINATE PDB         benchmark.pdb
Info: STRUCTURE FILE         benchmark.psf
Info: PARAMETER file: CHARMM format!
Info: PARAMETERS             par_all27_prot_lipid.prm
Info: USING ARITHMETIC MEAN TO COMBINE L-J SIGMA PARAMETERS
Info: BINARY COORDINATES     benchmark.coor
Info: SUMMARY OF PARAMETERS:
Info: 185 BONDS
Info: 467 ANGLES
Info: 601 DIHEDRAL
Info: 47 IMPROPER
Info: 6 CROSSTERM
Info: 121 VDW
Info: 0 VDW_PAIRS
Info: 0 NBTHOLE_PAIRS
Info: STRUCTURE SUMMARY:
Info: 19605 ATOMS
Info: 13294 BONDS
Info: 7504 ANGLES
Info: 1747 DIHEDRALS
Info: 107 IMPROPERS
Info: 44 CROSSTERMS
Info: 0 EXCLUSIONS
Info: 19278 RIGID BONDS
Info: 39537 DEGREES OF FREEDOM
Info: 6648 HYDROGEN GROUPS
Info: 4 ATOMS IN LARGEST HYDROGEN GROUP
Info: 6648 MIGRATION GROUPS
Info: 4 ATOMS IN LARGEST MIGRATION GROUP
Info: TOTAL MASS = 118606 amu
Info: TOTAL CHARGE = 3.91155e-07 e
Info: MASS DENSITY = 1.01971 g/cm^3
Info: ATOM DENSITY = 0.101503 atoms/A^3
Info: ADDED 22511 IMPLICIT EXCLUSIONS
Info: NONBONDED TABLE R-SQUARED SPACING: 0.0625
Info: NONBONDED TABLE SIZE: 769 POINTS
Info: REMOVING COM VELOCITY -0.030499 -0.00173677 -0.0148317
TCL: Running for 50000 steps
ETITLE: TS BOND ANGLE DIHED IMPRP ELECT VDW BOUNDARY MISC KINETIC TOTAL TEMP POTENTIAL TOTAL3 TEMPAVG PRESSURE GPRESSURE VOLUME PRESSAVG GPRESSAVG
ENERGY: 0 126.0233 379.8907 188.6283 23.4813 -69503.0844 6392.4052 0.0000 0.0000 11739.8867 -50652.7688 298.8482 -62392.6556 -50623.9748 298.8482 117.9994 118.6334 193146.6593 117.9994 118.6334
ENERGY: 10000 137.8244 371.5126 178.1294 24.0748 -69460.7936 6339.5183 0.0000 0.0000 11744.4986 -50665.2355 298.9656 -62409.7341 -50639.8906 300.1702 13.3934 -11.9659 193209.8093 2.4645 2.7877
ENERGY: 20000 119.4897 384.2734 183.8713 22.6350 -69470.1110 6353.7464 0.0000 0.0000 11743.7399 -50662.3554 298.9462 -62406.0953 -50641.9278 298.8632 26.6966 59.4774 193252.1004 -2.9954 -2.8480
ENERGY: 30000 145.7633 377.7070 197.8755 24.6890 -69688.1803 6467.4570 0.0000 0.0000 11788.6015 -50686.0869 300.0882 -62474.6884 -50660.8624 299.9841 157.0783 149.4413 192951.8071 1.7769 1.5249
ENERGY: 40000 129.6626 387.9116 188.0935 23.4352 -69843.1867 6571.9500 0.0000 0.0000 11832.8548 -50709.2789 301.2147 -62542.1337 -50689.8043 299.4375 187.9717 188.1227 194576.6590 3.7017 3.7887
ENERGY: 50000 126.6832 373.0767 188.1829 25.7742 -69326.8492 6161.7836 0.0000 0.0000 11686.8624 -50764.4861 297.4984 -62451.3486 -50740.8706 300.4882 -133.4686 -133.9187 193305.7927 2.2128 2.3521
