Info: SIMULATION PARAMETERS:
Info: TIMESTEP               2
Info: NUMBER OF STEPS        0
Info: STEPS PER CYCLE        20
Info: PERIODIC CELL BASIS 1  57.8046 0 0
Info: PERIODIC CELL BASIS 2  0 57.8046 0
Info: PERIODIC CELL BASIS 3  0 0 57.8046
Info: PERIODIC CELL CENTER   0 0 0
Info: WRAPPING ALL CLUSTERS AROUND PERIODIC BOUNDARIES ON OUTPUT.
Info: WRAPPING TO IMAGE NEAREST TO PERIODIC CELL CENTER.
Info: FIRST LDB TIMESTEP     100
Info: LAST LDB TIMESTEP     -1
Info: HOM BACKGROUND SCALING 1
Info: PME BACKGROUND SCALING 1
Info: MIN ATOMS PER PATCH    40
Info: VELOCITY FILE          benchmark.vel
Info: CENTER OF MASS MOVING INITIALLY? NO
Info: DIELECTRIC             1
Info: EXCLUDE                SCALED ONE-FOUR
Info: 1-4 ELECTROSTATICS SCALED BY 1
Info: MODIFIED 1-4 VDW PARAMETERS WILL BE USED
Info: DCD FILENAME           benchmark.dcd
Info: DCD FREQUENCY          25000
Info: DCD FIRST STEP         25000
Info: DCD FILE WILL CONTAIN UNIT CELL DATA
Info: XST FILENAME           benchmark.xst
Info: XST FREQUENCY          25000
Info: NO VELOCITY DCD OUTPUT
Info: NO FORCE DCD OUTPUT
Info: OUTPUT FILENAME        benchmark
Info: BINARY OUTPUT FILES WILL BE USED
Info: RESTART FILENAME       benchmark
Info: RESTART FREQUENCY      25000
Info: BINARY RESTART FILES WILL BE USED
Info: SWITCHING ACTIVE
Info: SWITCHING ON           10
Info: SWITCHING OFF          12
Info: PAIRLIST DISTANCE      14
Info: PAIRLIST SHRINK RATE   0.01
Info: PAIRLIST GROW RATE     0.01
Info: PAIRLIST TRIGGER       0.3
Info: PAIRLISTS PER CYCLE    1
Info: PAIRLISTS ENABLED
Info: MARGIN                 0.495
Info: HYDROGEN GROUP CUTOFF  2.5
Info: PATCH DIMENSION        16.995
Info: ENERGY OUTPUT STEPS    10000
Info: CROSSTERM ENERGY INCLUDED IN DIHEDRAL
Info: TIMING OUTPUT STEPS    10000
Info: PRESSURE OUTPUT STEPS  10000
Info: LANGEVIN DYNAMICS ACTIVE
Info: LANGEVIN TEMPERATURE   300
Info: LANGEVIN USING BBK INTEGRATOR
Info: LANGEVIN DAMPING COEFFICIENT IS 1 INVERSE PS
Info: LANGEVIN DYNAMICS APPLIED TO HYDROGENS
Info: LANGEVIN PISTON PRESSURE CONTROL ACTIVE
Info:        TARGET PRESSURE IS 1 BAR
Info:     OSCILLATION PERIOD IS 200 FS
Info:             DECAY TIME IS 100 FS
Info:     PISTON TEMPERATURE IS 300 K
Info:       PRESSURE CONTROL IS GROUP-BASED
Info:    INITIAL STRAIN RATE IS 2.91119e-05 2.91119e-05 2.91119e-05
Info:       CELL FLUCTUATION IS ISOTROPIC
Info: PARTICLE MESH EWALD (PME) ACTIVE
Info: PME TOLERANCE               1e-06
Info: PME EWALD COEFFICIENT       0.257952
Info: PME INTERPOLATION ORDER     4
Info: PME GRID DIMENSIONS         60 60 60
Info: PME MAXIMUM GRID SPACING    1
Info: FULL ELECTROSTATIC EVALUATION FREQUENCY      1
Info: USING VERLET I (r-RESPA) MTS SCHEME.
Info: C1 SPLITTING OF LONG RANGE ELECTROSTATICS
Info: PLACING ATOMS IN PATCHES BY HYDROGEN GROUPS
Info: RIGID BONDS TO HYDROGEN : ALL
Info:         ERROR TOLERANCE : 1e-08
Info:          MAX ITERATIONS : 100
Info: RIGID WATER USING SETTLE ALGORITHM
Info: RANDOM NUMBER SEED     1624888124
Info: USE HYDROGEN BONDS?    NO
Info: COORDINATE PDB         benchmark.pdb
Info: STRUCTURE FILE         benchmark.psf
Info: PARAMETER file: CHARMM format!
Info: PARAMETERS             par_all27_prot_lipid.prm
Info: USING ARITHMETIC MEAN TO COMBINE L-J SIGMA PARAMETERS
Info: BINARY COORDINATES     benchmark.coor
Info: SUMMARY OF PARAMETERS:
Info: 185 BONDS
Info: 467 ANGLES
Info: 601 DIHEDRAL
Info: 47 IMPROPER
Info: 6 CROSSTERM
Info: 121 VDW
Info: 0 VDW_PAIRS
Info: 0 NBTHOLE_PAIRS
Info: STRUCTURE SUMMARY:
Info: 19605 ATOMS
Info: 13294 BONDS
Info: 7504 ANGLES
Info: 1747 DIHEDRALS
Info: 107 IMPROPERS
Info: 44 CROSSTERMS
Info: 0 EXCLUSIONS
Info: 19278 RIGID BONDS
Info: 39537 DEGREES OF FREEDOM
Info: 6648 HYDROGEN GROUPS
Info: 4 ATOMS IN LARGEST HYDROGEN GROUP
Info: 6648 MIGRATION GROUPS
Info: 4 ATOMS IN LARGEST MIGRATION GROUP
Info: TOTAL MASS = 118606 amu
Info: TOTAL CHARGE = 3.91155e-07 e
Info: MASS DENSITY = 1.01971 g/cm^3
Info: ATOM DENSITY = 0.101503 atoms/A^3
Info: ADDED 22511 IMPLICIT EXCLUSIONS
Info: NONBONDED TABLE R-SQUARED SPACING: 0.0625
Info: NONBONDED TABLE SIZE: 769 POINTS
Info: REMOVING COM VELOCITY -0.030499 -0.00173677 -0.0148317
TCL: Running for 50000 steps
ETITLE: TS BOND ANGLE DIHED IMPRP ELECT VDW BOUNDARY MISC KINETIC TOTAL TEMP POTENTIAL TOTAL3 TEMPAVG PRESSURE GPRESSURE VOLUME PRESSAVG GPRESSAVG
ENERGY: 0 126.0233 379.8907 188.6283 23.4813 -69503.0844 6392.4052 0.0000 0.0000 11739.8867 -50652.7688 298.8482 -62392.6556 -50623.9749 298.8482 117.9994 118.6334 193146.6593 117.9994 118.6334
ENERGY: 10000 139.4991 372.0220 187.4955 22.2122 -69730.6290 6301.9325 0.0000 0.0000 11833.8747 -50873.5930 301.2407 -62707.4677 -50843.7563 299.4919 -324.2702 -330.6257 194193.9366 0.2233 0.2118
ENERGY: 20000 133.7899 389.1564 191.8632 20.4999 -69368.3817 6151.5781 0.0000 0.0000 11951.3258 -50530.1684 304.2305 -62481.4942 -50503.7298 300.3104 -207.5243 -203.8278 192861.3848 0.7513 0.7091
ENERGY: 30000 133.5881 385.7611 190.0201 22.1597 -69553.9875 6328.4885 0.0000 0.0000 11795.1304 -50698.8396 300.2544 -62493.9700 -50669.9559 299.9882 -44.3342 -40.8394 193490.2552 0.6688 0.6828
ENERGY: 40000 144.1397 371.6471 176.0489 19.3026 -69125.7794 6187.1737 0.0000 0.0000 11792.3323 -50435.1351 300.1832 -62227.4674 -50407.5681 300.1907 -119.5472 -149.2098 194495.5722 -0.7246 -0.7598
ENERGY: 50000 144.0413 357.6280 183.0196 24.1517 -69535.8353 6242.6288 0.0000 0.0000 11775.1202 -50809.2457 299.7451 -62584.3659 -50781.3676 300.7656 -163.4089 -161.2964 192742.0947 -1.9402 -1.9819
