Info: SIMULATION PARAMETERS:
Info: TIMESTEP               2
Info: NUMBER OF STEPS        0
Info: STEPS PER CYCLE        20
Info: PERIODIC CELL BASIS 1  57.8046 0 0
Info: PERIODIC CELL BASIS 2  0 57.8046 0
Info: PERIODIC CELL BASIS 3  0 0 57.8046
Info: PERIODIC CELL CENTER   0 0 0
Info: WRAPPING ALL CLUSTERS AROUND PERIODIC BOUNDARIES ON OUTPUT.
Info: WRAPPING TO IMAGE NEAREST TO PERIODIC CELL CENTER.
Info: FIRST LDB TIMESTEP     100
Info: LAST LDB TIMESTEP     -1
Info: HOM BACKGROUND SCALING 1
Info: PME BACKGROUND SCALING 1
Info: MIN ATOMS PER PATCH    40
Info: VELOCITY FILE          benchmark.vel
Info: CENTER OF MASS MOVING INITIALLY? NO
Info: DIELECTRIC             1
Info: EXCLUDE                SCALED ONE-FOUR
Info: 1-4 ELECTROSTATICS SCALED BY 1
Info: MODIFIED 1-4 VDW PARAMETERS WILL BE USED
Info: DCD FILENAME           benchmark.dcd
Info: DCD FREQUENCY          25000
Info: DCD FIRST STEP         25000
Info: DCD FILE WILL CONTAIN UNIT CELL DATA
Info: XST FILENAME           benchmark.xst
Info: XST FREQUENCY          25000
Info: NO VELOCITY DCD OUTPUT
Info: NO FORCE DCD OUTPUT
Info: OUTPUT FILENAME        benchmark
Info: BINARY OUTPUT FILES WILL BE USED
Info: RESTART FILENAME       benchmark
Info: RESTART FREQUENCY      25000
Info: BINARY RESTART FILES WILL BE USED
Info: SWITCHING ACTIVE
Info: SWITCHING ON           10
Info: SWITCHING OFF          12
Info: PAIRLIST DISTANCE      14
Info: PAIRLIST SHRINK RATE   0.01
Info: PAIRLIST GROW RATE     0.01
Info: PAIRLIST TRIGGER       0.3
Info: PAIRLISTS PER CYCLE    1
Info: PAIRLISTS ENABLED
Info: MARGIN                 0.495
Info: HYDROGEN GROUP CUTOFF  2.5
Info: PATCH DIMENSION        16.995
Info: ENERGY OUTPUT STEPS    10000
Info: CROSSTERM ENERGY INCLUDED IN DIHEDRAL
Info: TIMING OUTPUT STEPS    10000
Info: PRESSURE OUTPUT STEPS  10000
Info: LANGEVIN DYNAMICS ACTIVE
Info: LANGEVIN TEMPERATURE   300
Info: LANGEVIN USING BBK INTEGRATOR
Info: LANGEVIN DAMPING COEFFICIENT IS 1 INVERSE PS
Info: LANGEVIN DYNAMICS APPLIED TO HYDROGENS
Info: LANGEVIN PISTON PRESSURE CONTROL ACTIVE
Info:        TARGET PRESSURE IS 1 BAR
Info:     OSCILLATION PERIOD IS 200 FS
Info:             DECAY TIME IS 100 FS
Info:     PISTON TEMPERATURE IS 300 K
Info:       PRESSURE CONTROL IS GROUP-BASED
Info:    INITIAL STRAIN RATE IS 2.91119e-05 2.91119e-05 2.91119e-05
Info:       CELL FLUCTUATION IS ISOTROPIC
Info: PARTICLE MESH EWALD (PME) ACTIVE
Info: PME TOLERANCE               1e-06
Info: PME EWALD COEFFICIENT       0.257952
Info: PME INTERPOLATION ORDER     4
Info: PME GRID DIMENSIONS         60 60 60
Info: PME MAXIMUM GRID SPACING    1
Info: FULL ELECTROSTATIC EVALUATION FREQUENCY      1
Info: USING VERLET I (r-RESPA) MTS SCHEME.
Info: C1 SPLITTING OF LONG RANGE ELECTROSTATICS
Info: PLACING ATOMS IN PATCHES BY HYDROGEN GROUPS
Info: RIGID BONDS TO HYDROGEN : ALL
Info:         ERROR TOLERANCE : 1e-08
Info:          MAX ITERATIONS : 100
Info: RIGID WATER USING SETTLE ALGORITHM
Info: RANDOM NUMBER SEED     1624888154
Info: USE HYDROGEN BONDS?    NO
Info: COORDINATE PDB         benchmark.pdb
Info: STRUCTURE FILE         benchmark.psf
Info: PARAMETER file: CHARMM format!
Info: PARAMETERS             par_all27_prot_lipid.prm
Info: USING ARITHMETIC MEAN TO COMBINE L-J SIGMA PARAMETERS
Info: BINARY COORDINATES     benchmark.coor
Info: SUMMARY OF PARAMETERS:
Info: 185 BONDS
Info: 467 ANGLES
Info: 601 DIHEDRAL
Info: 47 IMPROPER
Info: 6 CROSSTERM
Info: 121 VDW
Info: 0 VDW_PAIRS
Info: 0 NBTHOLE_PAIRS
Info: STRUCTURE SUMMARY:
Info: 19605 ATOMS
Info: 13294 BONDS
Info: 7504 ANGLES
Info: 1747 DIHEDRALS
Info: 107 IMPROPERS
Info: 44 CROSSTERMS
Info: 0 EXCLUSIONS
Info: 19278 RIGID BONDS
Info: 39537 DEGREES OF FREEDOM
Info: 6648 HYDROGEN GROUPS
Info: 4 ATOMS IN LARGEST HYDROGEN GROUP
Info: 6648 MIGRATION GROUPS
Info: 4 ATOMS IN LARGEST MIGRATION GROUP
Info: TOTAL MASS = 118606 amu
Info: TOTAL CHARGE = 3.91155e-07 e
Info: MASS DENSITY = 1.01971 g/cm^3
Info: ATOM DENSITY = 0.101503 atoms/A^3
Info: ADDED 22511 IMPLICIT EXCLUSIONS
Info: NONBONDED TABLE R-SQUARED SPACING: 0.0625
Info: NONBONDED TABLE SIZE: 769 POINTS
Info: REMOVING COM VELOCITY -0.030499 -0.00173677 -0.0148317
TCL: Running for 50000 steps
ETITLE: TS BOND ANGLE DIHED IMPRP ELECT VDW BOUNDARY MISC KINETIC TOTAL TEMP POTENTIAL TOTAL3 TEMPAVG PRESSURE GPRESSURE VOLUME PRESSAVG GPRESSAVG
ENERGY: 0 126.0233 379.8907 188.6283 23.4813 -69503.0844 6392.4052 0.0000 0.0000 11739.8867 -50652.7688 298.8482 -62392.6556 -50623.9749 298.8482 117.9994 118.6334 193146.6593 117.9994 118.6334
ENERGY: 10000 131.8733 369.7825 185.9007 21.3658 -69482.7181 6291.6944 0.0000 0.0000 11883.0279 -50599.0735 302.4919 -62482.1013 -50575.0959 300.7133 -24.6724 -34.0181 193092.4715 2.6401 2.5176
ENERGY: 20000 134.9937 391.9279 188.1992 20.7524 -69712.9561 6379.8493 0.0000 0.0000 11903.3937 -50693.8399 303.0104 -62597.2336 -50672.1698 300.6667 44.9532 49.1019 192948.5654 4.0166 3.7755
ENERGY: 30000 136.8320 387.3577 177.3999 20.5360 -69564.7676 6444.0854 0.0000 0.0000 11689.0532 -50709.5035 297.5541 -62398.5567 -50681.2718 300.2846 -18.0650 -9.6628 194527.6210 -1.2062 -1.0978
ENERGY: 40000 141.4469 403.3329 189.7713 20.2363 -69589.3375 6362.0092 0.0000 0.0000 11720.2623 -50752.2787 298.3486 -62472.5410 -50724.1040 300.1312 135.8962 152.9141 192914.8149 2.7996 2.8584
ENERGY: 50000 117.5196 360.7157 184.2035 17.8547 -69343.9155 6262.4489 0.0000 0.0000 11863.8221 -50537.3509 302.0030 -62401.1731 -50507.9003 300.8444 20.2567 13.9916 193131.2164 1.8255 1.7892
